FoamFile
{
    version     2.0;
    format      ascii;
    class       volScalarField;
    object      k;
}
// * * * * * * * * * * * * * * * * * * * * * * * * * * * * * * * * * * * * * //

dimensions      [0 2 -2 0 0 0 0];

internalField   uniform 0.0006;

boundaryField
{
    inlet
    {
        type            fixedValue;
        value           $internalField;
    }

    outlet
    {
        type            zeroGradient;
    }

    topBottom
    {
        type            zeroGradient;
    }

    cylinder
    {
        // type            kqRWallFunction;
        // value           $internalField;
        type            fixedValue;
        value           uniform 0;
    }

    frontBack
    {
        type            empty;
    }
}


// ************************************************************************* //
