/*--------------------------------*- C++ -*----------------------------------*\
| =========                 |                                                 |
| \\      /  F ield         | OpenFOAM: The Open Source CFD Toolbox           |
|  \\    /   O peration     | Version:  v2212                                 |
|   \\  /    A nd           | Website:  www.openfoam.com                      |
|    \\/     M anipulation  |                                                 |
\*---------------------------------------------------------------------------*/
FoamFile
{
    version     2.0;
    format      ascii;
    class       volVectorField;
    object      U;
}
// * * * * * * * * * * * * * * * * * * * * * * * * * * * * * * * * * * * * * //

#include        "include/initialConditions"

dimensions      [0 1 -1 0 0 0 0];

internalField   uniform (1e-9 0 0); // uniform $flowVelocity;

boundaryField
{
    "(inlet|outlet|topAndBottom)"
    {
        type            zeroGradient;
    }

    cylinder
    {
        type            movingWallVelocity;
        value           uniform (0 0 0);
    }

    "(front|back)"
    {
        type            empty;
    }
}


// ************************************************************************* //
